
     RDKit          3D

 60 63  0  0  0  0  0  0  0  0999 V2000
  -15.0260  -12.5030    9.8620 C   0  0  0  0  0  0  0  0  0  0  0  0
  -14.8260  -11.2010   10.6260 C   0  0  0  0  0  0  0  0  0  0  0  0
  -13.5680  -10.5550   10.1690 C   0  0  0  0  0  0  0  0  0  0  0  0
  -13.8840   -9.4000    9.4720 F   0  0  0  0  0  0  0  0  0  0  0  0
  -12.9130  -11.4410    9.3190 F   0  0  0  0  0  0  0  0  0  0  0  0
  -12.6240  -10.2200   11.2670 C   0  0  0  0  0  0  0  0  0  0  0  0
  -12.0460  -11.4190   11.8790 C   0  0  0  0  0  0  0  0  0  0  0  0
  -10.9070  -11.8200   11.5970 O   0  0  0  0  0  0  0  0  0  0  0  0
  -12.8210  -12.1490   12.8300 N   0  0  0  0  0  0  0  0  0  0  0  0
  -12.3020  -13.3390   13.4650 C   0  0  2  0  0  0  0  0  0  0  0  0
  -12.4080  -14.4880   12.4860 C   0  0  0  0  0  0  0  0  0  0  0  0
  -13.8550  -14.8640   12.3470 C   0  0  0  0  0  0  0  0  0  0  0  0
  -14.2710  -15.6320   13.5790 C   0  0  1  0  0  0  0  0  0  0  0  0
  -14.1350  -17.0480   13.3020 N   0  0  0  0  0  0  0  0  0  0  0  0
  -13.0970  -17.8550   13.5730 C   0  0  0  0  0  0  0  0  0  0  0  0
  -13.3750  -19.1340   13.1470 C   0  0  0  0  0  0  0  0  0  0  0  0
  -12.5420  -20.3240   13.2370 C   0  0  0  0  0  0  0  0  0  0  0  0
  -13.0780  -21.5590   13.5300 C   0  0  0  0  0  0  0  0  0  0  0  0
  -12.2800  -22.6940   13.6120 C   0  0  0  0  0  0  0  0  0  0  0  0
  -10.9280  -22.5780   13.3960 C   0  0  0  0  0  0  0  0  0  0  0  0
  -10.0960  -23.7580   13.4790 C   0  0  0  0  0  0  0  0  0  0  0  0
   -9.9830  -24.7950   12.5660 C   0  0  0  0  0  0  0  0  0  0  0  0
   -9.0910  -25.6500   13.0880 N   0  0  0  0  0  0  0  0  0  0  0  0
   -8.6470  -25.2200   14.2500 N   0  0  0  0  0  0  0  0  0  0  0  0
   -7.6640  -25.9130   15.0900 C   0  0  0  0  0  0  0  0  0  0  0  0
   -9.2480  -24.0510   14.5240 C   0  0  0  0  0  0  0  0  0  0  0  0
  -10.3510  -21.3710   13.1020 C   0  0  0  0  0  0  0  0  0  0  0  0
  -11.1710  -20.2530   13.0260 C   0  0  0  0  0  0  0  0  0  0  0  0
  -14.6050  -19.0670   12.6140 N   0  0  0  0  0  0  0  0  0  0  0  0
  -15.0370  -17.8340   12.7140 N   0  0  0  0  0  0  0  0  0  0  0  0
  -13.3910  -15.2000   14.7250 C   0  0  0  0  0  0  0  0  0  0  0  0
  -13.0940  -13.7110   14.6930 C   0  0  0  0  0  0  0  0  0  0  0  0
  -15.1532  -13.3308   10.5752 H   0  0  0  0  0  0  0  0  0  0  0  0
  -15.9224  -12.4230    9.2295 H   0  0  0  0  0  0  0  0  0  0  0  0
  -14.1469  -12.6957    9.2295 H   0  0  0  0  0  0  0  0  0  0  0  0
  -15.6753  -10.5284   10.4355 H   0  0  0  0  0  0  0  0  0  0  0  0
  -14.7635  -11.4107   11.7040 H   0  0  0  0  0  0  0  0  0  0  0  0
  -11.8104   -9.6019   10.8596 H   0  0  0  0  0  0  0  0  0  0  0  0
  -13.1845   -9.6788   12.0435 H   0  0  0  0  0  0  0  0  0  0  0  0
  -13.7750  -11.7940   13.0520 H   0  0  0  0  0  0  0  0  0  0  0  0
  -11.2616  -13.1399   13.7614 H   0  0  0  0  0  0  0  0  0  0  0  0
  -12.0091  -14.1802   11.5082 H   0  0  0  0  0  0  0  0  0  0  0  0
  -11.8285  -15.3487   12.8511 H   0  0  0  0  0  0  0  0  0  0  0  0
  -14.4671  -13.9550   12.2521 H   0  0  0  0  0  0  0  0  0  0  0  0
  -13.9988  -15.4841   11.4499 H   0  0  0  0  0  0  0  0  0  0  0  0
  -15.3180  -15.4319   13.8504 H   0  0  0  0  0  0  0  0  0  0  0  0
  -12.1634  -17.5409   14.0626 H   0  0  0  0  0  0  0  0  0  0  0  0
  -14.1607  -21.6486   13.7027 H   0  0  0  0  0  0  0  0  0  0  0  0
  -12.7249  -23.6722   13.8467 H   0  0  0  0  0  0  0  0  0  0  0  0
  -10.5159  -24.8960   11.6090 H   0  0  0  0  0  0  0  0  0  0  0  0
   -7.9037  -25.7440   16.1502 H   0  0  0  0  0  0  0  0  0  0  0  0
   -7.6931  -26.9914   14.8748 H   0  0  0  0  0  0  0  0  0  0  0  0
   -6.6581  -25.5232   14.8748 H   0  0  0  0  0  0  0  0  0  0  0  0
   -9.0911  -23.4367   15.4229 H   0  0  0  0  0  0  0  0  0  0  0  0
   -9.2675  -21.2896   12.9308 H   0  0  0  0  0  0  0  0  0  0  0  0
  -10.7195  -19.2779   12.7907 H   0  0  0  0  0  0  0  0  0  0  0  0
  -13.8989  -15.4393   15.6709 H   0  0  0  0  0  0  0  0  0  0  0  0
  -12.4347  -15.7363   14.6361 H   0  0  0  0  0  0  0  0  0  0  0  0
  -14.0436  -13.1558   14.6893 H   0  0  0  0  0  0  0  0  0  0  0  0
  -12.4986  -13.4555   15.5820 H   0  0  0  0  0  0  0  0  0  0  0  0
  1  2  1  0
  2  3  1  0
  3  4  1  0
  3  5  1  0
  3  6  1  0
  6  7  1  0
  7  8  2  0
  7  9  1  0
  9 10  1  0
 10 11  1  0
 11 12  1  0
 12 13  1  0
 13 14  1  0
 14 15  1  0
 15 16  2  0
 16 17  1  0
 17 18  2  0
 18 19  1  0
 19 20  2  0
 20 21  1  0
 21 22  1  0
 22 23  2  0
 23 24  1  0
 24 25  1  0
 24 26  1  0
 20 27  1  0
 27 28  2  0
 16 29  1  0
 29 30  2  0
 13 31  1  0
 31 32  1  0
 32 10  1  0
 30 14  1  0
 28 17  1  0
 26 21  2  0
  1 33  1  0
  1 34  1  0
  1 35  1  0
  2 36  1  0
  2 37  1  0
  6 38  1  0
  6 39  1  0
  9 40  1  0
 10 41  1  6
 11 42  1  0
 11 43  1  0
 12 44  1  0
 12 45  1  0
 13 46  1  6
 15 47  1  0
 18 48  1  0
 19 49  1  0
 22 50  1  0
 25 51  1  0
 25 52  1  0
 25 53  1  0
 26 54  1  0
 27 55  1  0
 28 56  1  0
 31 57  1  0
 31 58  1  0
 32 59  1  0
 32 60  1  0
M  END
