
     RDKit          3D

 53 56  0  0  0  0  0  0  0  0999 V2000
  -10.9860  -10.9950   15.1920 C   0  0  0  0  0  0  0  0  0  0  0  0
  -11.6560  -11.0110   13.8590 C   0  0  0  0  0  0  0  0  0  0  0  0
  -12.9880  -10.6760   13.7370 C   0  0  0  0  0  0  0  0  0  0  0  0
  -13.5940  -10.6980   12.4910 C   0  0  0  0  0  0  0  0  0  0  0  0
  -14.8210  -10.3860   12.3930 O   0  0  0  0  0  0  0  0  0  0  0  0
  -12.9400  -11.0340   11.3640 N   0  0  0  0  0  0  0  0  0  0  0  0
  -13.6090  -11.0460   10.0650 C   0  0  0  0  0  0  0  0  0  0  0  0
  -11.6420  -11.3620   11.4790 C   0  0  0  0  0  0  0  0  0  0  0  0
  -10.9920  -11.3560   12.6970 C   0  0  0  0  0  0  0  0  0  0  0  0
   -9.5810  -11.7140   12.8100 C   0  0  0  0  0  0  0  0  0  0  0  0
   -8.7460  -10.8000   12.6280 O   0  0  0  0  0  0  0  0  0  0  0  0
   -9.1310  -13.0120   13.1090 N   0  0  0  0  0  0  0  0  0  0  0  0
   -9.9320  -14.0710   13.6630 C   0  0  0  0  0  0  0  0  0  0  0  0
   -9.3550  -15.2700   12.9370 C   0  0  2  0  0  0  0  0  0  0  0  0
   -9.7840  -16.5190   13.5100 N   0  0  0  0  0  0  0  0  0  0  0  0
  -10.9830  -17.1690   13.1070 C   0  0  0  0  0  0  0  0  0  0  0  0
  -11.7060  -16.6500   12.2220 O   0  0  0  0  0  0  0  0  0  0  0  0
  -11.3410  -18.4720   13.7690 C   0  0  0  0  0  0  0  0  0  0  0  0
  -12.8160  -18.6630   13.8550 C   0  0  0  0  0  0  0  0  0  0  0  0
  -13.3490  -19.7650   12.9770 C   0  0  0  0  0  0  0  0  0  0  0  0
  -12.5580  -21.0210   13.1330 C   0  0  0  0  0  0  0  0  0  0  0  0
  -12.8310  -22.3280   13.2580 N   0  0  0  0  0  2  0  0  0  0  0  0
  -11.6930  -22.9910   13.3670 N   0  0  0  0  0  0  0  0  0  0  0  0
  -10.6390  -22.1280   13.3160 C   0  0  0  0  0  0  0  0  0  0  0  0
  -11.1920  -20.8850   13.1690 C   0  0  0  0  0  0  0  0  0  0  0  0
  -10.6010  -19.5520   13.0530 C   0  0  0  0  0  0  0  0  0  0  0  0
   -7.8650  -15.0100   13.2050 C   0  0  1  0  0  0  0  0  0  0  0  0
   -7.0530  -15.7550   12.3880 O   0  0  0  0  0  0  0  0  0  0  0  0
   -7.7940  -13.5210   12.9170 C   0  0  0  0  0  0  0  0  0  0  0  0
  -11.7477  -11.0132   15.9854 H   0  0  0  0  0  0  0  0  0  0  0  0
  -10.3367  -11.8779   15.2867 H   0  0  0  0  0  0  0  0  0  0  0  0
  -10.3796  -10.0821   15.2867 H   0  0  0  0  0  0  0  0  0  0  0  0
  -13.5685  -10.3918   14.6271 H   0  0  0  0  0  0  0  0  0  0  0  0
  -14.6987  -11.0655   10.2139 H   0  0  0  0  0  0  0  0  0  0  0  0
  -13.3321  -10.1427    9.5016 H   0  0  0  0  0  0  0  0  0  0  0  0
  -13.2999  -11.9387    9.5016 H   0  0  0  0  0  0  0  0  0  0  0  0
  -11.0807  -11.6436   10.5759 H   0  0  0  0  0  0  0  0  0  0  0  0
   -9.7979  -14.1534   14.7517 H   0  0  0  0  0  0  0  0  0  0  0  0
  -11.0163  -13.9381   13.5343 H   0  0  0  0  0  0  0  0  0  0  0  0
   -9.6477  -15.3631   11.8807 H   0  0  0  0  0  0  0  0  0  0  0  0
   -9.2040  -16.9620   14.2370 H   0  0  0  0  0  0  0  0  0  0  0  0
  -11.0276  -18.4891   14.8233 H   0  0  0  0  0  0  0  0  0  0  0  0
  -13.0729  -18.8986   14.8983 H   0  0  0  0  0  0  0  0  0  0  0  0
  -13.2765  -17.7281   13.5029 H   0  0  0  0  0  0  0  0  0  0  0  0
  -14.3953  -19.9654   13.2508 H   0  0  0  0  0  0  0  0  0  0  0  0
  -13.2736  -19.4380   11.9294 H   0  0  0  0  0  0  0  0  0  0  0  0
   -9.5697  -22.3780   13.3796 H   0  0  0  0  0  0  0  0  0  0  0  0
   -9.5800  -19.5943   13.4601 H   0  0  0  0  0  0  0  0  0  0  0  0
  -10.6335  -19.2921   11.9846 H   0  0  0  0  0  0  0  0  0  0  0  0
   -7.5180  -15.2911   14.2103 H   0  0  0  0  0  0  0  0  0  0  0  0
   -6.1170  -15.6120   12.6660 H   0  0  0  0  0  0  0  0  0  0  0  0
   -7.0955  -13.0308   13.6111 H   0  0  0  0  0  0  0  0  0  0  0  0
   -7.4323  -13.3258   11.8967 H   0  0  0  0  0  0  0  0  0  0  0  0
  1  2  1  0
  2  3  2  0
  3  4  1  0
  4  5  2  0
  4  6  1  0
  6  7  1  0
  6  8  1  0
  8  9  2  0
  9 10  1  0
 10 11  2  0
 10 12  1  0
 12 13  1  0
 13 14  1  0
 14 15  1  0
 15 16  1  0
 16 17  2  0
 16 18  1  0
 18 19  1  0
 19 20  1  0
 20 21  1  0
 21 22  1  0
 22 23  1  0
 23 24  2  0
 24 25  1  0
 25 26  1  0
 14 27  1  0
 27 28  1  0
 27 29  1  0
  9  2  1  0
 29 12  1  0
 26 18  1  0
 25 21  2  0
  1 30  1  0
  1 31  1  0
  1 32  1  0
  3 33  1  0
  7 34  1  0
  7 35  1  0
  7 36  1  0
  8 37  1  0
 13 38  1  0
 13 39  1  0
 14 40  1  6
 15 41  1  0
 18 42  1  0
 19 43  1  0
 19 44  1  0
 20 45  1  0
 20 46  1  0
 24 47  1  0
 26 48  1  0
 26 49  1  0
 27 50  1  1
 28 51  1  0
 29 52  1  0
 29 53  1  0
M  CHG  1  22  -1
M  END
