
     RDKit          3D

 60 63  0  0  0  0  0  0  0  0999 V2000
  -13.6330  -10.1740   10.1890 C   0  0  0  0  0  0  0  0  0  0  0  0
  -13.5730  -10.9700   11.4950 C   0  0  0  0  0  0  0  0  0  0  0  0
  -14.8840  -10.7260   12.2060 C   0  0  0  0  0  0  0  0  0  0  0  0
  -14.9100  -11.6400   13.3870 C   0  0  0  0  0  0  0  0  0  0  0  0
  -15.9470  -12.1160   13.8160 O   0  0  0  0  0  0  0  0  0  0  0  0
  -13.5980  -11.9440   14.0240 C   0  0  0  0  0  0  0  0  0  0  0  0
  -12.6880  -10.7810   13.7680 C   0  0  0  0  0  0  0  0  0  0  0  0
  -12.3740  -10.6150   12.3080 C   0  0  0  0  0  0  0  0  0  0  0  0
  -11.2600  -11.5730   11.9970 C   0  0  0  0  0  0  0  0  0  0  0  0
  -11.2610  -12.2200   10.9190 O   0  0  0  0  0  0  0  0  0  0  0  0
  -10.1870  -11.7730   12.8940 N   0  0  0  0  0  0  0  0  0  0  0  0
   -9.1290  -12.6930   12.5830 C   0  0  0  0  0  0  0  0  0  0  0  0
   -9.2380  -13.9960   13.3430 C   0  0  0  0  0  0  0  0  0  0  0  0
   -8.3600  -13.8780   14.5800 C   0  0  0  0  0  0  0  0  0  0  0  0
   -8.7920  -12.8010   15.3530 O   0  0  0  0  0  0  0  0  0  0  0  0
   -8.8510  -15.1770   12.5060 C   0  0  0  0  0  0  0  0  0  0  0  0
   -9.5450  -16.4620   12.9640 C   0  0  0  0  0  0  0  0  0  0  0  0
  -10.9870  -16.3030   12.9170 N   0  0  0  0  0  0  0  0  0  0  0  0
  -11.8640  -17.4000   12.9290 C   0  0  0  0  0  0  0  0  0  0  0  0
  -13.1830  -17.2050   12.8340 N   0  0  0  0  0  0  0  0  0  0  0  0
  -14.0840  -18.2150   12.8390 C   0  0  0  0  0  0  0  0  0  0  0  0
  -15.3110  -18.0400   12.7520 O   0  0  0  0  0  0  0  0  0  0  0  0
  -13.6330  -19.5210   12.9470 C   0  0  0  0  0  0  0  0  0  0  0  0
  -14.2080  -20.7630   12.9870 C   0  0  0  0  0  0  0  0  0  0  0  0
  -13.2060  -21.6520   13.1040 N   0  0  0  0  0  0  0  0  0  0  0  0
  -12.0360  -21.0330   13.1390 N   0  0  0  0  0  0  0  0  0  0  0  0
  -10.7390  -21.6760   13.2600 C   0  0  0  0  0  0  0  0  0  0  0  0
  -12.2630  -19.7030   13.0440 C   0  0  0  0  0  0  0  0  0  0  0  0
  -11.4050  -18.6600   13.0350 N   0  0  0  0  0  2  0  0  0  0  0  0
  -11.4880  -14.9450   12.8570 C   0  0  0  0  0  0  0  0  0  0  0  0
  -10.6640  -14.1280   13.8360 C   0  0  0  0  0  0  0  0  0  0  0  0
  -13.7139   -9.1009   10.4170 H   0  0  0  0  0  0  0  0  0  0  0  0
  -12.7185  -10.3570    9.6057 H   0  0  0  0  0  0  0  0  0  0  0  0
  -14.5097  -10.4920    9.6057 H   0  0  0  0  0  0  0  0  0  0  0  0
  -13.4526  -12.0467   11.3049 H   0  0  0  0  0  0  0  0  0  0  0  0
  -14.9467   -9.6786   12.5361 H   0  0  0  0  0  0  0  0  0  0  0  0
  -15.7371  -10.9183   11.5387 H   0  0  0  0  0  0  0  0  0  0  0  0
  -13.7307  -12.0848   15.1068 H   0  0  0  0  0  0  0  0  0  0  0  0
  -13.1709  -12.8673   13.6057 H   0  0  0  0  0  0  0  0  0  0  0  0
  -13.1745   -9.8640   14.1320 H   0  0  0  0  0  0  0  0  0  0  0  0
  -11.7422  -10.9702   14.2969 H   0  0  0  0  0  0  0  0  0  0  0  0
  -12.0890   -9.5779   12.0772 H   0  0  0  0  0  0  0  0  0  0  0  0
  -10.1730  -11.2430   13.7920 H   0  0  0  0  0  0  0  0  0  0  0  0
   -9.1599  -12.9118   11.5054 H   0  0  0  0  0  0  0  0  0  0  0  0
   -8.1818  -12.2178   12.8779 H   0  0  0  0  0  0  0  0  0  0  0  0
   -8.4297  -14.8042   15.1693 H   0  0  0  0  0  0  0  0  0  0  0  0
   -7.3155  -13.7163   14.2754 H   0  0  0  0  0  0  0  0  0  0  0  0
   -8.2280  -12.0010   15.2140 H   0  0  0  0  0  0  0  0  0  0  0  0
   -9.1295  -14.9771   11.4608 H   0  0  0  0  0  0  0  0  0  0  0  0
   -7.7658  -15.3237   12.6098 H   0  0  0  0  0  0  0  0  0  0  0  0
   -9.2498  -17.2891   12.3016 H   0  0  0  0  0  0  0  0  0  0  0  0
   -9.2438  -16.6806   13.9991 H   0  0  0  0  0  0  0  0  0  0  0  0
  -15.2830  -20.9899   12.9337 H   0  0  0  0  0  0  0  0  0  0  0  0
  -10.4890  -21.7999   14.3240 H   0  0  0  0  0  0  0  0  0  0  0  0
  -10.7719  -22.6622   12.7738 H   0  0  0  0  0  0  0  0  0  0  0  0
   -9.9740  -21.0528   12.7738 H   0  0  0  0  0  0  0  0  0  0  0  0
  -11.3734  -14.5440   11.8391 H   0  0  0  0  0  0  0  0  0  0  0  0
  -12.5568  -14.9076   13.1144 H   0  0  0  0  0  0  0  0  0  0  0  0
  -11.1074  -13.1263   13.9356 H   0  0  0  0  0  0  0  0  0  0  0  0
  -10.6592  -14.6374   14.8109 H   0  0  0  0  0  0  0  0  0  0  0  0
  1  2  1  0
  2  3  1  0
  3  4  1  0
  4  5  2  0
  4  6  1  0
  6  7  1  0
  7  8  1  0
  8  9  1  0
  9 10  2  0
  9 11  1  0
 11 12  1  0
 12 13  1  0
 13 14  1  0
 14 15  1  0
 13 16  1  0
 16 17  1  0
 17 18  1  0
 18 19  1  0
 19 20  2  0
 20 21  1  0
 21 22  2  0
 21 23  1  0
 23 24  1  0
 24 25  2  0
 25 26  1  0
 26 27  1  0
 26 28  1  0
 28 29  1  0
 18 30  1  0
 30 31  1  0
  8  2  1  0
 31 13  1  0
 29 19  1  0
 28 23  2  0
  1 32  1  0
  1 33  1  0
  1 34  1  0
  2 35  1  0
  3 36  1  0
  3 37  1  0
  6 38  1  0
  6 39  1  0
  7 40  1  0
  7 41  1  0
  8 42  1  0
 11 43  1  0
 12 44  1  0
 12 45  1  0
 14 46  1  0
 14 47  1  0
 15 48  1  0
 16 49  1  0
 16 50  1  0
 17 51  1  0
 17 52  1  0
 24 53  1  0
 27 54  1  0
 27 55  1  0
 27 56  1  0
 30 57  1  0
 30 58  1  0
 31 59  1  0
 31 60  1  0
M  CHG  1  29  -1
M  END
